lib/ShortCircuitCases/DefineLines.DSS
New "Line.L115" Bus1="149.1.2.3" Bus2="01.1.2.3" geometry="GD-L115" phases=3 baseFreq=50 Rho=100 Length=400 Units="m" 
New "Line.L1" Bus1="01.2" Bus2="02.2" geometry="GD-Line L1" phases=1 baseFreq=50 Rho=100 Length=175 Units="m" 
New "Line.L10" Bus1="08.1.2.3" Bus2="13.1.2.3" geometry="GD-Line L10" phases=3 baseFreq=50 Rho=100 Length=300 Units="m" 
New "Line.L100" Bus1="101.3" Bus2="102.3" geometry="GD-Line L100" phases=1 baseFreq=50 Rho=100 Length=225 Units="m" 
New "Line.L101" Bus1="101.1.2.3" Bus2="105.1.2.3" geometry="GD-Line L101" phases=3 baseFreq=50 Rho=100 Length=275 Units="m" 
New "Line.L102" Bus1="102.3" Bus2="103.3" geometry="GD-Line L102" phases=1 baseFreq=50 Rho=100 Length=325 Units="m" 
New "Line.L103" Bus1="103.3" Bus2="104.3" geometry="GD-Line L103" phases=1 baseFreq=50 Rho=100 Length=700 Units="m" 
New "Line.L104" Bus1="105.2" Bus2="106.2" geometry="GD-Line L104" phases=1 baseFreq=50 Rho=100 Length=225 Units="m" 
New "Line.L105" Bus1="105.1.2.3" Bus2="108.1.2.3" geometry="GD-Line L105" phases=3 baseFreq=50 Rho=100 Length=325 Units="m" 
New "Line.L106" Bus1="106.2" Bus2="107.2" geometry="GD-Line L106" phases=1 baseFreq=50 Rho=100 Length=575 Units="m" 
New "Line.L107" Bus1="108.1" Bus2="109.1" geometry="GD-Line L107" phases=1 baseFreq=50 Rho=100 Length=450 Units="m" 
New "Line.L108" Bus1="108.1.2.3" Bus2="300.1.2.3" geometry="GD-Line L108" phases=3 baseFreq=50 Rho=100 Length=100 Units="m" 
New "Line.L109" Bus1="109.1" Bus2="110.1" geometry="GD-Line L109" phases=1 baseFreq=50 Rho=100 Length=300 Units="m" 
New "Line.L11" Bus1="9r.1" Bus2="14.1" geometry="GD-Line L11" phases=1 baseFreq=50 Rho=100 Length=425 Units="m" 
New "Line.L110" Bus1="110.1" Bus2="111.1" geometry="GD-Line L110" phases=1 baseFreq=50 Rho=100 Length=575 Units="m" 
New "Line.L111" Bus1="110.1" Bus2="112.1" geometry="GD-Line L111" phases=1 baseFreq=50 Rho=100 Length=125 Units="m" 
New "Line.L112" Bus1="112.1" Bus2="113.1" geometry="GD-Line L112" phases=1 baseFreq=50 Rho=100 Length=525 Units="m" 
New "Line.L113" Bus1="113.1" Bus2="114.1" geometry="GD-Line L113" phases=1 baseFreq=50 Rho=100 Length=325 Units="m" 
New "Line.L114" Bus1="135.1.2.3" Bus2="35.1.2.3" geometry="GD-Line L114" phases=3 baseFreq=50 Rho=100 Length=375 Units="m" 
New "Line.L116" Bus1="152.1.2.3" Bus2="52.1.2.3" geometry="GD-Line L116" phases=3 baseFreq=50 Rho=100 Length=400 Units="m" 
New "Line.L117" Bus1="160r.1.2.3" Bus2="67.1.2.3" geometry="GD-Line L117" phases=3 baseFreq=50 Rho=100 Length=350 Units="m" 
New "Line.L118" Bus1="197.1.2.3" Bus2="101.1.2.3" geometry="GD-Line L118" phases=3 baseFreq=50 Rho=100 Length=250 Units="m" 
New "Line.L12" Bus1="13.3" Bus2="34.3" geometry="GD-Line L12" phases=1 baseFreq=50 Rho=100 Length=150 Units="m" 
New "Line.L13" Bus1="13.1.2.3" Bus2="18.1.2.3" geometry="GD-Line L13" phases=3 baseFreq=50 Rho=100 Length=825 Units="m" 
New "Line.L15" Bus1="14.1" Bus2="10.1" geometry="GD-Line L15" phases=1 baseFreq=50 Rho=100 Length=250 Units="m" 
New "Line.L16" Bus1="15.3" Bus2="16.3" geometry="GD-Line L16" phases=1 baseFreq=50 Rho=100 Length=375 Units="m" 
New "Line.L17" Bus1="15.3" Bus2="17.3" geometry="GD-Line L17" phases=1 baseFreq=50 Rho=100 Length=350 Units="m" 
New "Line.L18" Bus1="18.1" Bus2="19.1" geometry="GD-Line L18" phases=1 baseFreq=50 Rho=100 Length=250 Units="m" 
New "Line.L19" Bus1="18.1.2.3" Bus2="21.1.2.3" geometry="GD-Line L19" phases=3 baseFreq=50 Rho=100 Length=300 Units="m" 
New "Line.L2" Bus1="01.3" Bus2="03.3" geometry="GD-Line L2" phases=1 baseFreq=50 Rho=100 Length=250 Units="m" 
New "Line.L20" Bus1="19.1" Bus2="20.1" geometry="GD-Line L20" phases=1 baseFreq=50 Rho=100 Length=325 Units="m" 
New "Line.L21" Bus1="21.2" Bus2="22.2" geometry="GD-Line L21" phases=1 baseFreq=50 Rho=100 Length=525 Units="m" 
New "Line.L22" Bus1="21.1.2.3" Bus2="23.1.2.3" geometry="GD-Line L22" phases=3 baseFreq=50 Rho=100 Length=250 Units="m" 
New "Line.L23" Bus1="23.3" Bus2="24.3" geometry="GD-Line L23" phases=1 baseFreq=50 Rho=100 Length=550 Units="m" 
New "Line.L24" Bus1="23.1.2.3" Bus2="25.1.2.3" geometry="GD-Line L24" phases=3 baseFreq=50 Rho=100 Length=275 Units="m" 
New "Line.L25" Bus1="25r.1.3" Bus2="26.1.3" geometry="GD-Line L25a" phases=1 baseFreq=50 Rho=100 Length=175 Units="m" 
New "Line.L26" Bus1="25.1.2.3" Bus2="28.1.2.3" geometry="GD-Line L26" phases=3 baseFreq=50 Rho=100 Length=200 Units="m" 
New "Line.L27" Bus1="26.1.3" Bus2="27.1.3" geometry="GD-Line L27a" phases=1 baseFreq=50 Rho=100 Length=137.5 Units="m" 
New "Line.L28" Bus1="26.3" Bus2="31.3" geometry="GD-Line L28" phases=1 baseFreq=50 Rho=100 Length=225 Units="m" 
New "Line.L29" Bus1="27.1" Bus2="33.1" geometry="GD-Line L29" phases=1 baseFreq=50 Rho=100 Length=500 Units="m" 
New "Line.L3" Bus1="01.1.2.3" Bus2="07.1.2.3" geometry="GD-Line L3" phases=3 baseFreq=50 Rho=100 Length=300 Units="m" 
New "Line.L30" Bus1="28.1.2.3" Bus2="29.1.2.3" geometry="GD-Line L30" phases=3 baseFreq=50 Rho=100 Length=300 Units="m" 
New "Line.L31" Bus1="29.1.2.3" Bus2="30.1.2.3" geometry="GD-Line L31" phases=3 baseFreq=50 Rho=100 Length=350 Units="m" 
New "Line.L32" Bus1="30.1.2.3" Bus2="250.1.2.3" geometry="GD-Line L32" phases=3 baseFreq=50 Rho=100 Length=200 Units="m" 
New "Line.L33" Bus1="31.3" Bus2="32.3" geometry="GD-Line L33" phases=1 baseFreq=50 Rho=100 Length=300 Units="m" 
New "Line.L34" Bus1="34.3" Bus2="15.3" geometry="GD-Line L34" phases=1 baseFreq=50 Rho=100 Length=100 Units="m" 
New "Line.L35" Bus1="35.1.2" Bus2="36.1.2" geometry="GD-Line L35a" phases=1 baseFreq=50 Rho=100 Length=325 Units="m" 
New "Line.L36" Bus1="35.1.2.3" Bus2="40.1.2.3" geometry="GD-Line L36" phases=3 baseFreq=50 Rho=100 Length=250 Units="m" 
New "Line.L37" Bus1="36.1" Bus2="37.1" geometry="GD-Line L37" phases=1 baseFreq=50 Rho=100 Length=300 Units="m" 
New "Line.L38" Bus1="36.2" Bus2="38.2" geometry="GD-Line L38" phases=1 baseFreq=50 Rho=100 Length=250 Units="m" 
New "Line.L39" Bus1="38.2" Bus2="39.2" geometry="GD-Line L39" phases=1 baseFreq=50 Rho=100 Length=325 Units="m" 
New "Line.L4" Bus1="03.3" Bus2="04.3" geometry="GD-Line L4" phases=1 baseFreq=50 Rho=100 Length=200 Units="m" 
New "Line.L40" Bus1="40.3" Bus2="41.3" geometry="GD-Line L40" phases=1 baseFreq=50 Rho=100 Length=325 Units="m" 
New "Line.L41" Bus1="40.1.2.3" Bus2="42.1.2.3" geometry="GD-Line L41" phases=3 baseFreq=50 Rho=100 Length=250 Units="m" 
New "Line.L42" Bus1="42.2" Bus2="43.2" geometry="GD-Line L42" phases=1 baseFreq=50 Rho=100 Length=500 Units="m" 
New "Line.L43" Bus1="42.1.2.3" Bus2="44.1.2.3" geometry="GD-Line L43" phases=3 baseFreq=50 Rho=100 Length=200 Units="m" 
New "Line.L44" Bus1="44.1" Bus2="45.1" geometry="GD-Line L44" phases=1 baseFreq=50 Rho=100 Length=200 Units="m" 
New "Line.L45" Bus1="44.1.2.3" Bus2="47.1.2.3" geometry="GD-Line L45" phases=3 baseFreq=50 Rho=100 Length=250 Units="m" 
New "Line.L46" Bus1="45.1" Bus2="46.1" geometry="GD-Line L46" phases=1 baseFreq=50 Rho=100 Length=300 Units="m" 
New "Line.L47" Bus1="47.1.2.3" Bus2="48.1.2.3" geometry="GD-Line L47" phases=3 baseFreq=50 Rho=100 Length=150 Units="m" 
New "Line.L48" Bus1="47.1.2.3" Bus2="49.1.2.3" geometry="GD-Line L48" phases=3 baseFreq=50 Rho=100 Length=250 Units="m" 
New "Line.L49" Bus1="49.1.2.3" Bus2="50.1.2.3" geometry="GD-Line L49" phases=3 baseFreq=50 Rho=100 Length=250 Units="m" 
New "Line.L5" Bus1="03.3" Bus2="05.3" geometry="GD-Line L5" phases=1 baseFreq=50 Rho=100 Length=325 Units="m" 
New "Line.L50" Bus1="50.1.2.3" Bus2="51.1.2.3" geometry="GD-Line L50" phases=3 baseFreq=50 Rho=100 Length=250 Units="m" 
New "Line.L51" Bus1="51.1.2.3" Bus2="151.1.2.3" geometry="GD-line L51" phases=3 baseFreq=50 Rho=100 Length=500 Units="m" 
New "Line.L52" Bus1="52.1.2.3" Bus2="53.1.2.3" geometry="GD-Line L52" phases=3 baseFreq=50 Rho=100 Length=200 Units="m" 
New "Line.L53" Bus1="53.1.2.3" Bus2="54.1.2.3" geometry="GD-Line L53" phases=3 baseFreq=50 Rho=100 Length=125 Units="m" 
New "Line.L54" Bus1="54.1.2.3" Bus2="55.1.2.3" geometry="GD-Line L54" phases=3 baseFreq=50 Rho=100 Length=275 Units="m" 
New "Line.L55" Bus1="54.1.2.3" Bus2="57.1.2.3" geometry="GD-Line L55" phases=3 baseFreq=50 Rho=100 Length=350 Units="m" 
New "Line.L56" Bus1="55.1.2.3" Bus2="56.1.2.3" geometry="GD-Line L56" phases=3 baseFreq=50 Rho=100 Length=275 Units="m" 
New "Line.L57" Bus1="57.2" Bus2="58.2" geometry="GD-Line L57" phases=1 baseFreq=50 Rho=100 Length=250 Units="m" 
New "Line.L58" Bus1="57.1.2.3" Bus2="60.1.2.3" geometry="GD-Line L58" phases=3 baseFreq=50 Rho=100 Length=750 Units="m" 
New "Line.L59" Bus1="58.2" Bus2="59.2" geometry="GD-Line L59" phases=1 baseFreq=50 Rho=100 Length=250 Units="m" 
New "Line.L6" Bus1="05.3" Bus2="06.3" geometry="GD-Line L6" phases=1 baseFreq=50 Rho=100 Length=250 Units="m" 
New "Line.L60" Bus1="60.1.2.3" Bus2="61.1.2.3" geometry="GD-Line L60" phases=3 baseFreq=50 Rho=100 Length=550 Units="m" 
New "Line.L66" Bus1="67.1" Bus2="68.1" geometry="GD-Line L66" phases=1 baseFreq=50 Rho=100 Length=200 Units="m" 
New "Line.L67" Bus1="67.1.2.3" Bus2="72.1.2.3" geometry="GD-Line L67" phases=3 baseFreq=50 Rho=100 Length=275 Units="m" 
New "Line.L68" Bus1="67.1.2.3" Bus2="97.1.2.3" geometry="GD-Line L68" phases=3 baseFreq=50 Rho=100 Length=250 Units="m" 
New "Line.L69" Bus1="68.1" Bus2="69.1" geometry="GD-Line L69" phases=1 baseFreq=50 Rho=100 Length=275 Units="m" 
New "Line.L7" Bus1="07.1.2.3" Bus2="08.1.2.3" geometry="GD-Line L7" phases=3 baseFreq=50 Rho=100 Length=200 Units="m" 
New "Line.L70" Bus1="69.1" Bus2="70.1" geometry="GD-Line L70" phases=1 baseFreq=50 Rho=100 Length=325 Units="m" 
New "Line.L71" Bus1="70.1" Bus2="71.1" geometry="GD-Line L71" phases=1 baseFreq=50 Rho=100 Length=275 Units="m" 
New "Line.L72" Bus1="72.3" Bus2="73.3" geometry="GD-Line L72" phases=1 baseFreq=50 Rho=100 Length=275 Units="m" 
New "Line.L73" Bus1="72.1.2.3" Bus2="76.1.2.3" geometry="GD-Line L73" phases=3 baseFreq=50 Rho=100 Length=200 Units="m" 
New "Line.L74" Bus1="73.3" Bus2="74.3" geometry="GD-Line L74" phases=1 baseFreq=50 Rho=100 Length=350 Units="m" 
New "Line.L75" Bus1="74.3" Bus2="75.3" geometry="GD-Line L75" phases=1 baseFreq=50 Rho=100 Length=400 Units="m" 
New "Line.L76" Bus1="76.1.2.3" Bus2="77.1.2.3" geometry="GD-Line L76" phases=3 baseFreq=50 Rho=100 Length=400 Units="m" 
New "Line.L77" Bus1="76.1.2.3" Bus2="86.1.2.3" geometry="GD-Line L77" phases=3 baseFreq=50 Rho=100 Length=700 Units="m" 
New "Line.L78" Bus1="77.1.2.3" Bus2="78.1.2.3" geometry="GD-Line L78" phases=3 baseFreq=50 Rho=100 Length=100 Units="m" 
New "Line.L79" Bus1="78.1.2.3" Bus2="79.1.2.3" geometry="GD-Line L79" phases=3 baseFreq=50 Rho=100 Length=225 Units="m" 
New "Line.L8" Bus1="08.2" Bus2="12.2" geometry="GD-Line L8" phases=1 baseFreq=50 Rho=100 Length=225 Units="m" 
New "Line.L80" Bus1="78.1.2.3" Bus2="80.1.2.3" geometry="GD-Line L80" phases=3 baseFreq=50 Rho=100 Length=475 Units="m" 
New "Line.L81" Bus1="80.1.2.3" Bus2="81.1.2.3" geometry="GD-Line L81" phases=3 baseFreq=50 Rho=100 Length=175 Units="m" 
New "Line.L82" Bus1="81.1.2.3" Bus2="82.1.2.3" geometry="GD-Line L82" phases=3 baseFreq=50 Rho=100 Length=250 Units="m" 
New "Line.L83" Bus1="82.1.2.3" Bus2="83.1.2.3" geometry="GD-Line L83" phases=3 baseFreq=50 Rho=100 Length=250 Units="m" 
New "Line.L84" Bus1="81.3" Bus2="84.3" geometry="GD-Line L84" phases=1 baseFreq=50 Rho=100 Length=675 Units="m" 
New "Line.L86" Bus1="86.1.2.3" Bus2="87.1.2.3" geometry="GD-Line L86" phases=3 baseFreq=50 Rho=100 Length=450 Units="m" 
New "Line.L87" Bus1="87.1" Bus2="88.1" geometry="GD-Line L87" phases=1 baseFreq=50 Rho=100 Length=175 Units="m" 
New "Line.L88" Bus1="87.1.2.3" Bus2="89.1.2.3" geometry="GD-Line L88" phases=3 baseFreq=50 Rho=100 Length=275 Units="m" 
New "Line.L89" Bus1="89.2" Bus2="90.2" geometry="GD-Line L89" phases=1 baseFreq=50 Rho=100 Length=250 Units="m" 
New "Line.L9" Bus1="08.1" Bus2="09.1" geometry="GD-Line L9" phases=1 baseFreq=50 Rho=100 Length=225 Units="m" 
New "Line.L90" Bus1="89.1.2.3" Bus2="91.1.2.3" geometry="GD-Line L90" phases=3 baseFreq=50 Rho=100 Length=225 Units="m" 
New "Line.L91" Bus1="91.3" Bus2="92.3" geometry="GD-Line L91" phases=1 baseFreq=50 Rho=100 Length=300 Units="m" 
New "Line.L92" Bus1="91.1.2.3" Bus2="93.1.2.3" geometry="GD-Line L92" phases=3 baseFreq=50 Rho=100 Length=225 Units="m" 
New "Line.L93" Bus1="93.1" Bus2="94.1" geometry="GD-Line L93" phases=1 baseFreq=50 Rho=100 Length=275 Units="m" 
New "Line.L94" Bus1="93.1.2.3" Bus2="95.1.2.3" geometry="GD-Line L94" phases=3 baseFreq=50 Rho=100 Length=300 Units="m" 
New "Line.L95" Bus1="95.1.2.3" Bus2="96.1.2.3" geometry="GD-Line L94" phases=3 baseFreq=50 Rho=100 Length=300 Units="m" 
New "Line.L96" Bus1="97.1.2.3" Bus2="98.1.2.3" geometry="GD-Line L96" phases=3 baseFreq=50 Rho=100 Length=275 Units="m" 
New "Line.L97" Bus1="98.1.2.3" Bus2="99.1.2.3" geometry="GD-Line L97" phases=3 baseFreq=50 Rho=100 Length=550 Units="m" 
New "Line.L98" Bus1="99.1.2.3" Bus2="100.1.2.3" geometry="GD-Line L98" phases=3 baseFreq=50 Rho=100 Length=300 Units="m" 
New "Line.L99" Bus1="100.1.2.3" Bus2="450.1.2.3" geometry="GD-Line L99" phases=3 baseFreq=50 Rho=100 Length=800 Units="m" 
New "Line.L14" Bus1="14.1" Bus2="11.1" geometry="GD-Linie L14" phases=1 baseFreq=50 Rho=100 Length=250 Units="m" 
New "Line.L85" Bus1="84.3" Bus2="85.3" geometry="GD-LS85c" phases=1 baseFreq=50 Rho=100 Length=475 Units="m" 
New "Line.L61" Bus1="60.1.2.3" Bus2="62.1.2.3" LineCode="LC-custom_a011d926-5dec-4b76-8c93-1605211b405a" Length=250 Units="m" 
New "Line.L63" Bus1="63.1.2.3" Bus2="64.1.2.3" LineCode="LC-custom_2941b767-5415-4cad-88d3-28c438cf4f7f" Length=350 Units="m" 
New "Line.L64" Bus1="64.1.2.3" Bus2="65.1.2.3" LineCode="LC-custom_e83a4960-972f-43df-8725-199900c66e03" Length=425 Units="m" 
New "Line.L65" Bus1="65.1.2.3" Bus2="66.1.2.3" LineCode="LC-custom_a91dcd83-1bbf-4004-b6c8-c490a7ad41b6" Length=325 Units="m" 
